<configuration>
    <input>
        <net-file value="osm.net.xml"/>
        <route-files value="routes.rou.xml"/>
    </input>

    <time>
        <begin value="0"/>
        <end value="1000"/>
    </time>
</configuration>