<?xml version="1.0" encoding="UTF-8"?>

<!-- generated on 2026-01-20 07:36:14.590897 by randomTrips.py UNKNOWN
<configuration>
    <end value="1000"/>
    <net-file value="osm.net.xml"/>
    <period value="1.0"/>
    <route-file value="routes.rou.xml"/>
</configuration>
-->

<!-- generated on 2026-01-20 07:36:14 by Eclipse SUMO duarouter Version 1.15.0
<configuration xmlns:xsi="http://www.w3.org/2001/XMLSchema-instance" xsi:noNamespaceSchemaLocation="http://sumo.dlr.de/xsd/duarouterConfiguration.xsd">

    <input>
        <net-file value="osm.net.xml"/>
        <route-files value="trips.trips.xml"/>
    </input>

    <output>
        <output-file value="routes.rou.xml"/>
        <alternatives-output value="NUL"/>
    </output>

    <time>
        <begin value="0"/>
        <end value="1000"/>
    </time>

    <report>
        <no-warnings value="true"/>
        <ignore-errors value="true"/>
        <no-step-log value="true"/>
    </report>

</configuration>
-->

<routes xmlns:xsi="http://www.w3.org/2001/XMLSchema-instance" xsi:noNamespaceSchemaLocation="http://sumo.dlr.de/xsd/routes_file.xsd">
    <vehicle id="0" depart="0.00">
        <route edges="27582025#1 27582025#2 27582025#3 27582025#4 1056624430 360607389#0 360607389#1 360607389#2 360607389#3 360607389#4 800454330 27582024 633492704 114017938 52313310#0 52313310#1 286864439 37698287#0 37698287#1 37698287#2 16584757#0 16584757#1 1458351532 427901089 16584770 -16584770 -427901089 -1458351532"/>
    </vehicle>
    <vehicle id="1" depart="1.00">
        <route edges="114096698 22736560#0 22736560#1 22736560#2 22736560#3 22736560#4 22736560#5 884052692#0 884052692#1 884052692#2 884052692#3 630344047 27584328#0 27584328#1 634946192 651690846 634946200#0 634946200#1 634946207 286864437 634946222 286864436#0 286864436#1 286864435#0 286864435#1 43631337 16140504 44498473 1383744478 325053377#0 325053377#1 185988007#0 185988007#1 185988007#2 643522075 -368361682#1 -368361682#0 504661018 24444654 692188360 -693493859#6 -693493859#5 -693493859#4 -693493859#3"/>
    </vehicle>
    <vehicle id="2" depart="2.00">
        <route edges="313277571#1 313277571#2 -16765433#2 -16765433#1 -16765433#0 114721085#0 114721085#1 114721085#2 114721085#3 385168223 520420545 114721083#0 114721083#1 1357871076 1357871077 27584323#0 27584323#1 1373359304 114549378#0 114549378#1 114549378#2 642317653#0 642317653#1 642317653#2 642317653#3 642317653#4 642317653#5 1448122212 114549361 1185249060 147571090 646872367 646872366#0 646872366#1 646872366#2 314851453#0 314851453#1 314851453#2 114549366 114549363 504661011 16752083#0 16752083#1 16752083#2 16752083#3 556603009#0 556603009#1 16752126#0 16752126#1 16752128#0 16752128#1 319899460#0 319899460#1 319899460#2 319899460#3 319899460#4 319899460#5 291002280#0 291002280#1 291002280#2 291002280#3"/>
    </vehicle>
    <vehicle id="3" depart="3.00">
        <route edges="506983530#0 506983530#1 835434388#0 835434388#1 835434388#2 546630808#0 546630808#1 546630808#2 187980770 31152954 22728198#0 22728198#1 22728198#2 22728198#3 28458113 16237794 327513070 16237822 16237819 327513287 16237805 1185249059#0 1185249059#1 217553572#0 217553572#1 217553572#2 642317656#0 642317656#1 163033566#0 163033566#1 163033566#2 646872371 1185249058 856059031 1375589120 642317657#0 642317657#1 642317657#2 642317657#3 217553573 321967465 114549383#0 114549383#1 114549383#2 114549383#3 642317661#0 642317661#1 1185249065 642317658 434580880#0 434580880#1 434580880#2 434580879 16237824 325053374 302095144 325062543#0 325062543#1 16237814#0 16237814#1 16237814#2 16237814#3 1113720064#0 1113720064#1 29593612 187405647#0 187405647#1 27582025#0 27582025#1 27582025#2 27582025#3 27582025#4 1056624430 360607389#0 360607389#1 360607389#2 360607389#3 360607389#4 800454330 27582024 633492704 114017938 114017939#0 114017939#1 16140504 44498473 1383744478 325053377#0 325053377#1 185988007#0 185988007#1 185988007#2 643522075 303103884#0 303103884#1 303103884#2 375081506 187024719 -504338162 -504338161 24729906#0 24729906#1 24729906#2 24729906#3 -504338159 -24729907#4 -24729907#3 -24729907#2 -24729907#1 -24729907#0 24729907#0 24729907#1 24729907#2 24729907#3 24729907#4 504338159 -24729906#3 -24729906#2 -24729906#1"/>
    </vehicle>
    <vehicle id="4" depart="4.00">
        <route edges="16752096#0 16752096#1 368687229 24645896#4 24645896#5 24645896#6 336745716 321714707 1002617677 16752111#0 16752111#1 16752111#2 -16313066#3 -16313066#2"/>
    </vehicle>
    <vehicle id="6" depart="6.00">
        <route edges="-153855728#0 300062517#0 300062517#1 447913425#0 447913425#1 447913425#2 300062515#0 300062515#1 506686956 21587257#0 21587257#1 21587257#2 434580879 16237824 325053374 302095144 325062543#0 325062543#1 16237814#0 16237814#1 16237814#2 16237814#3 1113720064#0 1113720064#1 361442307#0 361442307#1 361442307#2 325053376#0 325053376#1 325053376#2 325053376#3 325053376#4 325053375#0 325053375#1 26520259 114549365 1185249064 114549376#0 114549376#1 114549376#2 114549376#3 -27584323#1 -27584323#0 -1357871077 -1357871076 -114721083#1 -114721083#0 -520420545 -385168223 -114721085#3 -114721085#2 -114721085#1 -114721085#0 16765433#0 16765433#1 16765433#2 -329326425#2 -329326425#1 -329326425#0 -746578743 -385168224 -16313659#2 -16313659#1 -16313659#0 16313662 313277572#0 313277572#1 313277572#2 16584738 22736573#0 22736573#1 304190730 506686972#0 506686972#1 506686970#0 506686970#1 506686970#2 506686969#0 506686969#1 -506686969#1 -506686969#0 -506686970#2 -506686970#1"/>
    </vehicle>
    <vehicle id="7" depart="7.00">
        <route edges="27717895#6 506983530#0 506983530#1 835434388#0 835434388#1 835434388#2 546630808#0 546630808#1 546630808#2 187980770 31152954 22728198#0 22728198#1 22728198#2 22728198#3 28458113 16237794 327513070 16237822 16237819 327513287 16237805 1185249059#0 1185249059#1 217553572#0 217553572#1 217553572#2 642317656#0 642317656#1 163033566#0 163033566#1 163033566#2 646872371 1185249058 856059031 1375589120 642317657#0 642317657#1 642317657#2 642317657#3 217553573 321967465 114549383#0 114549383#1 114549383#2 114549383#3 642317661#0 642317661#1 1185249065 642317658 434580880#0 434580880#1 434580880#2 434580879 16237824 325053374 302095144 325062543#0 325062543#1 16237816#0 16237816#1 16237816#2 16237826#0 16237826#1 16237826#2 642317666#0 642317666#1 642317666#2 21593530 448416000#0 448416000#1 448416000#2 116025991#8 127546090#0 127546090#1 127546090#2 -595607354#6 -595607354#5 -595607354#4 -595607354#3 -595607354#2 -595607354#1 -595607354#0 595607354#0 -1346209585 -996257044 -22727455#2 -22727455#1 -22727455#0 -996257047 28187385#0 28187385#1 28187385#2 28187385#3 28187385#4 895843612 -895843612 -28187385#4 -28187385#3 -28187385#2 -28187385#1 -28187385#0 996257047 22727455#0"/>
    </vehicle>
    <vehicle id="8" depart="8.00">
        <route edges="-651690844#8 -651690844#7 -651690844#6 -651690844#5 -651690844#4 -651690844#3 -651690844#2 -651690844#1 -651690844#0 -505064175#1 -505064175#0 -634946200#1 -634946200#0 -651690846 -634946192 -27584328#1 -27584328#0 -630344047 16636227 187032331#0 187032331#1 187032331#2 187032331#3 838810419#0 838810419#1 52392011 22736560#3 22736560#4 22736560#5 884052692#0 884052692#1 884052692#2 884052692#3 630344047 27584328#0 27584328#1 634946192 651690846 634946200#0 634946200#1 634946207 286864437 634946222 286864436#0 286864436#1 52313311#0 52313311#1 853855729#0 853855729#1 325053378 114017940 1381883229#0 1381883229#1 27582028#0 27582028#1 27582028#2 27686278#0 27686278#1 444175824#0 444175824#1 444175824#2 444175824#3 444175824#4 444175823#0 444175823#1 444175823#2 1056624430 360607389#0 360607389#1 24585805#0 24585805#1 24585805#2 24585805#3 24585805#4 24585805#5 24585819#0"/>
    </vehicle>
    <vehicle id="9" depart="9.00">
        <route edges="365535794 -188201179#2 -188201179#1 -188201179#0 -378383993 -1050524213#1"/>
    </vehicle>
    <vehicle id="10" depart="10.00">
        <route edges="360608545#2 688816555 1276046979#0 1276046979#1 24585808#0 24585808#1 24585808#2 24585808#3 24585808#4 24585808#5 43631339#1 43631339#2 43631339#3 43631339#4 361442307#0 361442307#1 361442307#2 325053376#0 325053376#1 325053376#2 325053376#3 325053376#4 325053375#0 325053375#1 26520259 114549365 1185249064 506983514 853009771#0 853009771#1 956152209 22727326#0 22727326#1 22727326#2 22727326#3 22727326#4 22727326#5 22727326#6 22727326#7 22727326#8 22727326#9 22727326#10 22727324#0 22727324#1 22727324#2 22727324#3 22727324#4 685315275#0 685315275#1 114017940 1381883229#0 1381883229#1 27582028#0 27582028#1 27582028#2 302103630#0 302103630#1 16237812#0 16237812#1 16237812#2 145462500 1179683786 43631338 325053374 302095144 325062543#0 325062543#1 16237816#0 16237816#1 16237816#2 22727448 361442312#0 361442312#1 361442312#2 300062517#0 300062517#1"/>
    </vehicle>
    <vehicle id="12" depart="12.00">
        <route edges="693493859#6 -693493859#6 -693493859#5 -693493859#4 -693493859#3 -693493859#2 -693493859#1 -693493859#0 -37698287#2 -37698287#1 -37698287#0 643516658 114017941#0 114017941#1 1011207715 52313313#0 52313313#1 325053377#0 325053377#1 185988007#0 185988007#1 185988007#2 643522075 303103884#0 303103884#1 303103884#2 372930807 187024714 43631336 37698370 187024715 1383744477#0 1383744477#1 1383744477#2 286864434#0 286864434#1 196971985 187032329#0 187032329#1 43631331 16237811 853855729#0 853855729#1 325053378 114017940 1381883229#0 1381883229#1 27582028#0 27582028#1 27582028#2 302103630#0 302103630#1 1383744473#0 1383744473#1 27582029#0 27582029#1 26520259 114549365 1185249064 114549376#0 114549376#1 114549376#2 114549376#3 1373359304 114549378#0 114549378#1 114549378#2 642317653#0 642317653#1 642317653#2 642317653#3 642317653#4 642317653#5 1448122212 114549361 1185249060 147571090 646872367 646872366#0 646872366#1 646872366#2 314851453#0 314851453#1 314851453#2 114549366 114549380#0 114549380#1 114549380#2 303842280 1185249061 424199876 952995213 327512886 327512887 16237818 16237803 327636497#0 327636497#1 28458117#0 28458117#1 28458117#2 28458117#3 187980738 114959439 22728200 303846875#0 303846875#1 114959443 31234888 114959440#0 114959440#1 131477038 131477085"/>
    </vehicle>
    <vehicle id="13" depart="13.00">
        <route edges="-25014455#0 -1281223368 -1088852865 16636245#0 16636245#1 16636245#2 16636245#3 187980752 247597654 -1067121991 -213496841#1 -213496841#0 27369762#0 27369762#1 27369762#2 27369762#3 319415146 22728067#0 22728067#1 22728067#2 22728067#3 22728067#4 319899460#4 319899460#5 27368941#0 27368941#1 27368941#2 27368942#0 27368942#1 372378293 -372378293 -27368942#1 -27368942#0"/>
    </vehicle>
    <vehicle id="14" depart="14.00">
        <route edges="434580880#2 434580879 16237824 325053374 302095144 325062543#0 325062543#1 16237814#0 16237814#1 16237814#2 16237814#3 1113720064#0 1113720064#1 29593612 187405647#0 187405647#1 27582025#0 27582025#1 27582025#2 27582025#3 27582025#4 1056624430 360607389#0 360607389#1 360607389#2 360607389#3 360607389#4 800454330 27582024 633492704 114017938 114017939#0 114017939#1 16140504 16313061 43631332 634946213 -286864437 -634946207 505064175#0 505064175#1 651690844#0 651690844#1 651690844#2 651690844#3 651690844#4 651690844#5 651690844#6 651690844#7 651690844#8 651690844#9 24983296#0 24983296#1"/>
    </vehicle>
    <vehicle id="15" depart="15.00">
        <route edges="361442307#1 361442307#2 325053376#0 325053376#1 325053376#2 325053376#3 325053376#4 325053375#0 325053375#1 26520259 114549365 1185249064 114549376#0 114549376#1 114549376#2 114549376#3 1373359304 114549378#0 114549378#1 114549378#2 642317653#0 642317653#1 642317653#2 642317653#3 642317653#4 642317653#5 1448122212 114549361 1185249060 147571090 646872367 646872366#0 646872366#1 646872366#2 314851453#0 314851453#1 314851453#2 114549366 114549380#0 114549380#1 114549380#2 303842280 1185249061 424199876 16237801 642317654 16636234 31152951#0 31152951#1 295082891 187980676 187980667 187980689 28458431 187980622 385555276#0 385555276#1 114549374#0 114549374#1 385555275 686468686 187980719#0 187980719#1 187980719#2 187980719#3 16636244#0 16636244#1 16636244#2 16636244#3 16636244#4 853830526 1067121988 311360773#0 311360773#1 383469675#0 383469675#1 383469675#2 625285413 312558169#0 312558169#1 312558169#2 312558169#3 312558169#4 312558169#5 312558169#6 312558169#7 312558169#8"/>
    </vehicle>
    <vehicle id="16" depart="16.00">
        <route edges="22727324#2 22727324#3 22727324#4 685315275#0 685315275#1 114017940 1381883229#0 1381883229#1 27582028#0 27582028#1 27582028#2 302103630#0 302103630#1 1383744473#0 1383744473#1 27582029#0 27582029#1 26520259 114549365 1185249064 114549376#0 114549376#1 114549376#2 114549376#3 1373359304 114549378#0 114549378#1 114549378#2 642317653#0 642317653#1 642317653#2 642317653#3 642317653#4 642317653#5 1448122212 114549361 1185249060 147571090 646872367 646872366#0 646872366#1 646872366#2 314851453#0 314851453#1 314851453#2 114549366 114549363 504661011 16752083#0 16752083#1 16752083#2 16752083#3 556603009#0 556603009#1 16752126#0 16752126#1 16752128#0 16752128#1 319899460#0 319899460#1 319899460#2 319899460#3 319899460#4 319899460#5 27368941#0 27368941#1 27368941#2 931760903#0 931760903#1 931760903#2 931760903#3 931760903#4 931760903#5 931760903#6 931760903#7 812952366#0 812952366#1 812952366#2 812952366#3 812952366#4"/>
    </vehicle>
    <vehicle id="17" depart="17.00">
        <route edges="16313057#2 16313057#3 16313057#4 16313057#5 16313057#6 16636245#0 16636245#1 16636245#2 16636245#3 713318938 16636241#0 16636241#1 16636241#2 114549369 327630429 187980637 28458434 187980639 187980640 16313072#0 16313072#1 386389967 187980661#0 187980661#1 190721402#0 190721402#1 190721402#2 190721402#3 30999211#0 -22728143 22728144#0 22728144#1 22728144#2 22728144#3 22728144#4 22728144#5 22728144#6 22728144#7 22728144#8 22728144#9 22728144#10 385486018#3 27582837#0 27582837#1 1446347385#0 1446347385#1 1446347385#2 114549380#0 114549380#1 114549380#2 303842280 1185249061 1265662896 22728084#0 22728084#1"/>
    </vehicle>
    <vehicle id="18" depart="18.00">
        <route edges="383469678#2 16313066#0 16313066#1 16313066#2 16313066#3 16313069#0 16313069#1 16313069#2 16313069#3 1002617678#0 1002617678#1 1002617679 16752109 16752105 114959449#0 114959449#1 114959449#2 768728229 16313057#0 16313057#1 -52327232#2 -52327232#1 -52327232#0 -940591032#1 -940591032#0 24319948#0 24319948#1 173499642#0 173499642#1 173499642#2 173499642#3 321920982#5 321920982#6 321920982#7 321920982#8 676877112#0 676877112#1 676877112#2 676877107#0 676877107#1 27369757#0"/>
    </vehicle>
    <vehicle id="19" depart="19.00">
        <route edges="467354581 321722462#0 321722462#1 894935724 16237791#0 16237791#1 16237791#2 490980062 328041266#0 328041266#1 21593533#0 21593533#1 448416000#0 448416000#1 448416000#2 116025991#8 127546090#0 127546090#1 127546090#2 31585998#0 31585998#1 31585998#2 31585998#3 1351626608#0 1351626608#1 1351626608#2 1351626608#3 27369750#0 27369750#1 27369750#2 321920981 294817999#0 294817999#1 294817999#2 294817999#3 294817999#4 931760904#3 291132512#0 291132512#1 291132512#2 291132512#3 291132512#4 236813430#0 236813430#1 236813430#2 236813430#3"/>
    </vehicle>
    <vehicle id="20" depart="20.00">
        <route edges="302103630#0 302103630#1 1383744473#0 1383744473#1 27582029#0 27582029#1 26520259 114549365 1185249064 114549376#0 114549376#1 114549376#2 114549376#3 -27584323#1 -27584323#0 -1357871077 -1357871076 -114721083#1 -114721083#0 -520420545 -385168223 -114721085#3 -114721085#2 -114721085#1 -114721085#0 16765433#0 16765433#1 16765433#2 -329326425#2 -329326425#1 -329326425#0 -746578743 -385168224 -16313659#2 -16313659#1 -16313659#0 16313662 313277572#0 313277572#1 313277572#2 16584738 114096696 22736561#0 22736561#1 22736561#2 16804332 505510063#0 505510063#1 889396113 16804335#0 16804335#1 -16804347#4 -16804347#3 -16804347#2 -16804347#1"/>
    </vehicle>
    <vehicle id="21" depart="21.00">
        <route edges="-754713797#0 -1448574724 -27369793#4 -27369793#3 -27369793#2 -27369793#1 -27369793#0 21587253#2 21587253#3 21587253#4 21587253#5 21587253#6 506686957#0 506686957#1 642317657#3 217553573 321967465 16313660#0 16313660#1 16313660#2 1373359305 114549378#0 114549378#1 114549378#2 642317653#0 642317653#1 642317653#2 642317653#3 642317653#4 642317653#5 1448122212 114549361 1185249060 147571090 646872367 646872366#0 646872366#1 646872366#2 314851453#0 314851453#1 314851453#2 114549366 114549363 504661011 16752083#0 16752083#1 16752083#2 16752083#3 556603009#0 556603009#1 16752126#0 16752126#1 -114553068#2 -114553068#1 -114553068#0 -274284265#1 -274284265#0 274284265#0 274284265#1 114553068#0 114553068#1 114553068#2"/>
    </vehicle>
    <vehicle id="22" depart="22.00">
        <route edges="-22728492#3 -22728492#2 -22728492#1 -22728492#0 16314714#1 16314714#2 16314714#3 16314714#4 16314714#5 16314714#6 16314714#7 304411854 365535787 304412191#0 304412191#1 365535794 378383994 16314722#0 16314722#1 16314722#2 868279448 187032331#0 187032331#1 187032331#2 187032331#3 838810419#0 838810419#1 52392011 22736560#3 22736560#4 22736560#5 884052692#0 884052692#1 884052692#2 884052692#3 793060661#0 793060661#1 -28458767#3 -28458767#2 -28458767#1 -28458767#0 -16765433#2 -16765433#1 -16765433#0 114721085#0 114721085#1 114721085#2 114721085#3 385168223 520420545 114721083#0 114721083#1 1357871076 1357871077 27584323#0 27584323#1 1373359304 114549378#0 114549378#1 114549378#2 642317653#0 642317653#1 642317653#2 642317653#3 642317653#4 642317653#5 1448122212 114549361 1185249060 147571090 646872367 646872366#0 646872366#1 646872366#2 314851453#0 314851453#1 314851453#2 114549366 114549363 504661011 16752083#0 16752083#1 16752083#2 16752083#3 556603009#0 556603009#1 16752126#0 16752126#1 16752128#0 16752128#1 319899460#0 319899460#1 319899460#2 319899460#3 319899460#4 319899460#5 27368941#0 27368941#1 27368941#2 931760903#0 931760903#1 931760903#2 931760903#3 -931760903#3"/>
    </vehicle>
    <vehicle id="23" depart="23.00">
        <route edges="-27369771#2 -27369771#1 -27369771#0 -24319948#1 -24319948#0 940591032#0 940591032#1 52327232#0 52327232#1 52327232#2 16313057#2 16313057#3 16313057#4 16313057#5 16313057#6 16636245#0 16636245#1 16636245#2 16636245#3 713318938 16636241#0 16636241#1 16636241#2 114549369 327630429 187980637 28458434 187980639 187980640 187980674 481682857 114549381 1284843981 187980695#0 187980695#1 53212283#0 53212283#1 114815953#0 114815953#1 28458117#0 28458117#1 28458117#2 28458117#3 187980738 187980770 31152954 22728198#0 22728198#1 22728198#2 22728198#3 28458113 481680205 114815955 217553577 402784540#0 402784540#1 187980708#0 187980708#1 187980622 385555276#0 385555276#1 114549374#0 114549374#1"/>
    </vehicle>
    <vehicle id="24" depart="24.00">
        <route edges="27369798#2 27369798#3 -27369798#3 -27369798#2 -27369798#1 -27369798#0 27582837#1 1446347385#0 1446347385#1 1446347385#2 114549363 504661011 16752083#0 16752083#1 16752083#2 16752083#3 556603009#0 556603009#1 16752126#0 16752126#1 -114553068#2 -114553068#1 -114553068#0 -274284265#1 -274284265#0 365724994#0 365724994#1 505606199 217553572#1 217553572#2 642317656#0 642317656#1 163033566#0 163033566#1 163033566#2 646872371 1185249058 856059031 1375589120 642317657#0 642317657#1 642317657#2 642317657#3 217553573 321967465 114549383#0 114549383#1 114549383#2 114549383#3 642317661#0 642317661#1 1185249065 642317658 434580880#0 434580880#1 434580880#2 434580879 16237824 325053374 302095144 325062543#0 325062543#1 16237814#0 16237814#1 16237814#2 16237814#3 1113720064#0 1113720064#1 29593612 187405647#0 187405647#1 27582025#0 27582025#1 27582025#2 27582025#3 27582025#4 1056624430 360607389#0 360607389#1 360607389#2 360607389#3 360607389#4 800454330 27582024 633492704 114017938 114017939#0 114017939#1 16140504 44498473 1383744478 325053377#0 325053377#1 185988007#0 185988007#1 185988007#2 643522075 303103884#0 303103884#1 303103884#2 372930807 187024714 43631336 37698370 187024715 1383744477#0 1383744477#1 1383744477#2 286864434#0 286864434#1 196971985 187032329#0 187032329#1 43631331 16237811"/>
    </vehicle>
    <vehicle id="25" depart="25.00">
        <route edges="16237814#0 16237814#1 16237814#2 16237814#3 1113720064#0 1113720064#1 361442307#0 361442307#1 361442307#2 325053376#0 325053376#1 325053376#2 325053376#3 325053376#4 325053375#0 325053375#1 26520259 114549365 1185249064 506983514 853009771#0 853009771#1 956152209 22727326#0 22727326#1 22727326#2 22727326#3 22727326#4 22727326#5 22727326#6 22727326#7 22727326#8 22727326#9 22727326#10 22727324#0 22727324#1 22727324#2 22727324#3 22727324#4 685315275#0 685315275#1 114017940 1381883229#0 1381883229#1 27582028#0 27582028#1 27582028#2 302103630#0 302103630#1 16237812#0 16237812#1 16237812#2 145462500 1179683786 43631338 325053374 302095144 325062543#0 325062543#1 16237816#0 16237816#1 16237816#2 16237826#0 16237826#1 16237826#2 642317666#0 642317666#1 642317666#2 21593530 448416000#0 448416000#1 448416000#2 116025991#8 127546090#0 127546090#1 127546090#2 -595607354#6 -595607354#5 -595607354#4 -595607354#3 -595607354#2 -595607354#1"/>
    </vehicle>
    <vehicle id="26" depart="26.00">
        <route edges="1073865971 503888210#0 503888210#1 503888209#0 503888209#1 17909472 643528556 247597657#0 247597657#1 427669490 503888218 17909448#0 17909448#1 103150718#0 103150718#1 103150718#2 187980724 481680205 114815955 217553577 402784540#0 402784540#1 187980708#0 187980708#1 187980622 385555276#0 385555276#1 114549374#0 114549374#1 385555275 686468686 187980719#0 187980719#1 187980719#2 187980719#3 383486665#0 383486665#1 383486664 694246614 187980619#0 187980619#1 187980619#2 1383727910 1383727911#0 1383727911#1 1383727911#2 247597655 643528557#0 643528557#1"/>
    </vehicle>
    <vehicle id="27" depart="27.00">
        <route edges="27717895#2 27717895#3 27717895#4 27717895#5 27717895#6 506983530#0 506983530#1 835434388#0 835434388#1 835434388#2 546630808#0 546630808#1 546630808#2 187980770 31152954 22728198#0 22728198#1 22728198#2 22728198#3 28458113 481680205 114815955 217553577 402784540#0 402784540#1 327630430#0 327630430#1 28458432 481682859 28458433 187980700#0 187980700#1 187980700#2 16636229 642685406 26838814#0 26838814#1"/>
    </vehicle>
    <vehicle id="28" depart="28.00">
        <route edges="-365535794 -304412191#1 -304412191#0 -365535787 -304411854 -16314714#7 -16314714#6 -16314714#5 -16314714#4 -16314714#3 -16314714#2 -16314714#1 16314714#1 16314714#2 16314714#3 16314714#4 16314714#5 16314714#6 16314714#7 304411854 365535787 304412191#0 304412191#1 365535794 378383994 16314722#0 16314722#1 16314722#2 868279448 187032331#0 187032331#1 187032331#2 187032331#3 838810419#0 838810419#1 52392011 22736560#3 22736560#4 22736560#5 884052692#0 884052692#1 884052692#2 884052692#3 793060661#0 793060661#1 -28458767#3 -28458767#2 -28458767#1 -28458767#0 -16765433#2 -16765433#1 -16765433#0 114721085#0 114721085#1 114721085#2 114721085#3 385168223 520420545 114721083#0 114721083#1 1357871076 1357871077 27584323#0 27584323#1 1373359304 114549378#0 114549378#1 114549378#2 642317653#0 642317653#1 642317653#2 642317653#3 642317653#4 642317653#5 1448122212 114549361 1185249060 147571090 646872367 646872366#0 646872366#1 646872366#2 314851453#0 314851453#1 314851453#2 114549366 114549380#0 114549380#1 114549380#2 303842280 1185249061 424199876 16237801 642317654 16636234 31152951#0 31152951#1 295082891 187980676 187980667 187980689 28458431 187980622 385555276#0 385555276#1 114549374#0 114549374#1 385555275 686468686 187980719#0 187980719#1 187980719#2 187980719#3 16636244#0 16636244#1 16636244#2 16636244#3 16636244#4 853830526 1067121988 311360773#0 311360773#1 383469675#0 383469675#1 383469675#2 625285413 312558169#0 312558169#1 312558169#2 312558169#3 312558169#4 312558169#5 312558169#6 312558169#7"/>
    </vehicle>
    <vehicle id="29" depart="29.00">
        <route edges="-329326425#1 -329326425#0 -746578743 -385168224 385168224 746578743 329326425#0 329326425#1 329326425#2 -16765433#2 -16765433#1 -16765433#0 114721085#0 114721085#1 114721085#2 114721085#3 385168223 520420545 114721083#0 114721083#1 1357871076 1357871077 27584323#0 27584323#1 1373359304 114549378#0 114549378#1 114549378#2 642317653#0 642317653#1 642317653#2 642317653#3 642317653#4 642317653#5 1448122212 114549361 1185249060 147571090 646872367 646872366#0 646872366#1 646872366#2 314851453#0 314851453#1 314851453#2 114549366 114549380#0 114549380#1 114549380#2 303842280 1185249061 424199876 16237801 642317654 16636234 31152951#0 31152951#1 295082891 187980676 187980667 187980689 28458431 187980622 385555276#0 385555276#1 114549374#0 114549374#1 385555275 686468686 187980719#0 187980719#1 187980719#2 187980719#3 16636244#0 16636244#1 16636244#2 16636244#3 16636244#4 853830526 1067121988 311360773#0 311360773#1 16313066#0 16313066#1"/>
    </vehicle>
    <vehicle id="30" depart="30.00">
        <route edges="931760903#4 931760903#5 931760903#6 931760903#7 812952366#0 812952366#1 812952366#2 812952366#3 812952366#4 812952366#5 291002268#0 291002268#1 291002268#2 27369743 319899455#0 319899455#1 319899455#2 319899455#3 319899455#4 319899455#5 595607354#5 595607354#6 31585998#0 31585998#1 31585998#2 31585998#3 31585998#4 31585998#5 114553067#0 114553067#1 114553067#2 16584744 16237791#0 16237791#1 16237791#2 490980062 451474006 187405575 43631339#0 43631339#1 43631339#2 43631339#3 43631339#4 361442307#0 361442307#1 361442307#2 325053376#0 325053376#1 325053376#2 325053376#3 325053376#4 325053375#0 325053375#1 26520259 114549365 1185249064 114549376#0 114549376#1 114549376#2 114549376#3 -27584323#1 -27584323#0 -1357871077 -1357871076 -114721083#1 -114721083#0 -520420545 520420545 114721083#0 114721083#1 1357871076 1357871077 27584323#0"/>
    </vehicle>
    <vehicle id="31" depart="31.00">
        <route edges="22728085#1 22728085#2 22728085#3 31152951#0 31152951#1 295082891 187980676 187980667 187980689 28458431 187980622 385555276#0 385555276#1 114549374#0 114549374#1 385555275 686468686 187980719#0 187980719#1 187980719#2 187980719#3 16636244#0 16636244#1 16636244#2 16636244#3 16636244#4 853830526 1067121988 311360773#0 311360773#1 -383469678#2 -383469678#1 -383469678#0 -25014455#5 -25014455#4 -25014455#3 -25014455#2 -25014455#1 -25014455#0 -1281223368 -1088852865 16636245#0 16636245#1 16636245#2 16636245#3 187980752 247597654 -1067121991 -213496841#1 -213496841#0 22728066#0 22728066#1 22728066#2 22728066#3 22728066#4 22728066#5 22728066#6 319899453#0 319899453#1 319899453#2 319899453#3 319899453#4 319899453#5 319899453#6 291002268#0 291002268#1 291002268#2 27369743 319899455#0 319899455#1 319899455#2 319899455#3 319899455#4 319899455#5 595607354#5 595607354#6 31585998#0 31585998#1 31585998#2 31585998#3 1351626608#0 1351626608#1 1351626608#2 1351626608#3 27369750#0 27369750#1 27369750#2 321920981 294817999#0 294817999#1 294817999#2 294817999#3 294817999#4 931760904#3 291132512#0 291132512#1 291132512#2"/>
    </vehicle>
    <vehicle id="32" depart="32.00">
        <route edges="427669490 503888218 17909448#0 17909448#1 103150718#0 103150718#1 103150718#2 187980724 16237794 327513070 16237822 16237819 327513287 16237805 1185249059#0 1185249059#1 217553572#0 217553572#1 217553572#2 642317656#0 642317656#1 163033566#0 163033566#1 163033566#2 646872371 1185249058 856059031 1375589120 642317657#0 642317657#1 642317657#2 642317657#3 217553573 321967465 114549383#0 114549383#1 114549383#2 114549383#3 642317661#0 642317661#1 1185249065 642317658 434580880#0 434580880#1 434580880#2 434580879 16237824 325053374 302095144 325062543#0 325062543#1 16237814#0 16237814#1 16237814#2 16237814#3 1113720064#0 1113720064#1 361442307#0 361442307#1 361442307#2 325053376#0 325053376#1 325053376#2 325053376#3 325053376#4 325053375#0 325053375#1"/>
    </vehicle>
    <vehicle id="33" depart="33.00">
        <route edges="-768728228#0 768728228#0 768728228#1 768728228#2 768728228#3 16636245#0 16636245#1 16636245#2 16636245#3 713318938 16636241#0 16636241#1 16636241#2 114549369 187980646#0 187980646#1 187980700#0 187980700#1 187980700#2 16636229 114549382 315238872 16237805 1185249059#0 1185249059#1 217553572#0 217553572#1 217553572#2 642317656#0 642317656#1 163033566#0 163033566#1 163033566#2 646872371 1185249058 856059031 1375589120 642317657#0 642317657#1 642317657#2 642317657#3 217553573 321967465 114549383#0 114549383#1 114549383#2 114549383#3 642317661#0 642317661#1 1185249065 642317658 434580880#0 434580880#1 434580880#2 434580879 16237824 325053374 302095144 325062543#0 325062543#1 16237814#0 16237814#1 16237814#2 16237814#3 1113720064#0 1113720064#1 29593612 187405647#0 187405647#1 27582025#0 27582025#1 27582025#2 27582025#3 27582025#4 1056624430 360607389#0 360607389#1 360607389#2 360607389#3 360607389#4 800454330 27582024 633492704 114017938 114017939#0 114017939#1 16140504 16313061 43631332 634946213 -286864437 -634946207 -634946200#1 -634946200#0 -651690846 -634946192 -27584328#1 -27584328#0 -630344047 505529289 505529288#0 505529288#1 16314715#0 16314715#1 -365535794 -304412191#1 -304412191#0 -365535787 -304411854 -16314714#7 -16314714#6 -16314714#5 -16314714#4 -16314714#3 -16314714#2 -16314714#1 -16314714#0"/>
    </vehicle>
    <vehicle id="34" depart="34.00">
        <route edges="114979745#4 -672838072 -187980732#4 -187980732#3 -187980732#2 -187980732#1 -187980732#0 -672838073 -672838074#1 -672838074#0 -672838075 247597656#0 247597656#1 247597656#2 22728199 31152954 22728198#0 22728198#1 22728198#2 22728198#3 28458113 16237794 327513070 16237822 16237819 327513287 16237805 1185249059#0 1185249059#1 217553572#0 217553572#1 217553572#2 642317656#0 642317656#1 163033566#0 163033566#1 163033566#2 646872371 1185249058 856059031 1375589120 642317657#0 642317657#1 642317657#2 -506686957#1 -506686957#0 -21587253#6 -21587253#5 -21587253#4 -21587253#3 -21587253#2 -21587253#1 -21587253#0 556501706 112396697#0 112396697#1 112396697#2"/>
    </vehicle>
    <vehicle id="36" depart="36.00">