<?xml version="1.0" encoding="UTF-8"?>

<!-- generated on 2026-01-20 07:36:13.857113 by randomTrips.py UNKNOWN
<configuration>
    <end value="1000"/>
    <net-file value="osm.net.xml"/>
    <period value="1.0"/>
    <route-file value="routes.rou.xml"/>
</configuration>
-->

<routes xmlns:xsi="http://www.w3.org/2001/XMLSchema-instance" xsi:noNamespaceSchemaLocation="http://sumo.dlr.de/xsd/routes_file.xsd">
    <trip id="0" depart="0.00" from="27582025#1" to="-1458351532"/>
    <trip id="1" depart="1.00" from="114096698" to="-693493859#3"/>
    <trip id="2" depart="2.00" from="313277571#1" to="291002280#3"/>
    <trip id="3" depart="3.00" from="506983530#0" to="-24729906#1"/>
    <trip id="4" depart="4.00" from="16752096#0" to="-16313066#2"/>
    <trip id="5" depart="5.00" from="-651690844#4" to="190721404#1"/>
    <trip id="6" depart="6.00" from="-153855728#0" to="-506686970#1"/>
    <trip id="7" depart="7.00" from="27717895#6" to="22727455#0"/>
    <trip id="8" depart="8.00" from="-651690844#8" to="24585819#0"/>
    <trip id="9" depart="9.00" from="365535794" to="-1050524213#1"/>
    <trip id="10" depart="10.00" from="360608545#2" to="300062517#1"/>
    <trip id="11" depart="11.00" from="131477085" to="-319453567#4"/>
    <trip id="12" depart="12.00" from="693493859#6" to="131477085"/>
    <trip id="13" depart="13.00" from="-25014455#0" to="-27368942#0"/>
    <trip id="14" depart="14.00" from="434580880#2" to="24983296#1"/>
    <trip id="15" depart="15.00" from="361442307#1" to="312558169#8"/>
    <trip id="16" depart="16.00" from="22727324#2" to="812952366#4"/>
    <trip id="17" depart="17.00" from="16313057#2" to="22728084#1"/>
    <trip id="18" depart="18.00" from="383469678#2" to="27369757#0"/>
    <trip id="19" depart="19.00" from="467354581" to="236813430#3"/>
    <trip id="20" depart="20.00" from="302103630#0" to="-16804347#1"/>
    <trip id="21" depart="21.00" from="-754713797#0" to="114553068#2"/>
    <trip id="22" depart="22.00" from="-22728492#3" to="-931760903#3"/>
    <trip id="23" depart="23.00" from="-27369771#2" to="114549374#1"/>
    <trip id="24" depart="24.00" from="27369798#2" to="16237811"/>
    <trip id="25" depart="25.00" from="16237814#0" to="-595607354#1"/>
    <trip id="26" depart="26.00" from="1073865971" to="643528557#1"/>
    <trip id="27" depart="27.00" from="27717895#2" to="26838814#1"/>
    <trip id="28" depart="28.00" from="-365535794" to="312558169#7"/>
    <trip id="29" depart="29.00" from="-329326425#1" to="16313066#1"/>
    <trip id="30" depart="30.00" from="931760903#4" to="27584323#0"/>
    <trip id="31" depart="31.00" from="22728085#1" to="291132512#2"/>
    <trip id="32" depart="32.00" from="427669490" to="325053375#1"/>
    <trip id="33" depart="33.00" from="-768728228#0" to="-16314714#0"/>
    <trip id="34" depart="34.00" from="114979745#4" to="112396697#2"/>
    <trip id="35" depart="35.00" from="-581616145" to="651690844#8"/>
    <trip id="36" depart="36.00" from="505453005#0" to="116025990#4"/>
    <trip id="37" depart="37.00" from="28187385#3" to="16314714#6"/>
    <trip id="38" depart="38.00" from="556501706" to="182832739#2"/>
    <trip id="39" depart="39.00" from="1054824342#2" to="1003993199#0"/>
    <trip id="40" depart="40.00" from="22728144#5" to="1067121988"/>
    <trip id="41" depart="41.00" from="236813430#7" to="52313310#0"/>
    <trip id="42" depart="42.00" from="16314714#6" to="-651690846"/>
    <trip id="43" depart="43.00" from="973067735" to="191640878#1"/>
    <trip id="44" depart="44.00" from="-247497658#2" to="-16804347#4"/>
    <trip id="45" depart="45.00" from="-27717899#0" to="27369785#0"/>
    <trip id="46" depart="46.00" from="329316575#1" to="16752111#2"/>
    <trip id="47" depart="47.00" from="-21587253#0" to="16313069#2"/>
    <trip id="48" depart="48.00" from="973067732" to="226915027#0"/>
    <trip id="49" depart="49.00" from="812952366#0" to="501244949#1"/>
    <trip id="50" depart="50.00" from="-114553068#0" to="31152951#0"/>
    <trip id="51" depart="51.00" from="291120088#1" to="22727325#7"/>
    <trip id="52" depart="52.00" from="1067121991" to="27584328#0"/>
    <trip id="53" depart="53.00" from="-27717899#4" to="16804339#7"/>
    <trip id="54" depart="54.00" from="173499642#1" to="693493859#0"/>
    <trip id="55" depart="55.00" from="505067338#0" to="1067121991"/>
    <trip id="56" depart="56.00" from="188337254#1" to="-383486665#0"/>
    <trip id="57" depart="57.00" from="553526427#0" to="504661011"/>
    <trip id="58" depart="58.00" from="114794171#1" to="27582029#1"/>
    <trip id="59" depart="59.00" from="25014454" to="-318885134#0"/>
    <trip id="60" depart="60.00" from="319899453#5" to="22727326#10"/>
    <trip id="61" depart="61.00" from="325053375#1" to="226915027#3"/>
    <trip id="62" depart="62.00" from="-1018244909#1" to="1235839777"/>
    <trip id="63" depart="63.00" from="-1201129750" to="642317657#1"/>
    <trip id="64" depart="64.00" from="505510063#1" to="385555276#0"/>
    <trip id="65" depart="65.00" from="114959440#0" to="-187980732#0"/>
    <trip id="66" depart="66.00" from="505453005#3" to="672838075"/>
    <trip id="67" depart="67.00" from="-24645898#1" to="187980708#0"/>
    <trip id="68" depart="68.00" from="-226915027#1" to="319899455#0"/>
    <trip id="69" depart="69.00" from="319899457#0" to="-291120088#4"/>
    <trip id="70" depart="70.00" from="187980619#1" to="22728067#1"/>
    <trip id="71" depart="71.00" from="1054824342#2" to="505066645"/>
    <trip id="72" depart="72.00" from="16752099#0" to="-595607354#6"/>
    <trip id="73" depart="73.00" from="22727325#3" to="312558169#9"/>
    <trip id="74" depart="74.00" from="-506686970#2" to="114979745#4"/>
    <trip id="75" depart="75.00" from="952995213" to="28187385#0"/>
    <trip id="76" depart="76.00" from="16804339#7" to="21587255#0"/>
    <trip id="77" depart="77.00" from="-285385136#4" to="-693493859#6"/>
    <trip id="78" depart="78.00" from="131476956#2" to="24585808#3"/>
    <trip id="79" depart="79.00" from="-768728228#2" to="-672838073"/>
    <trip id="80" depart="80.00" from="-22727455#1" to="27369798#1"/>
    <trip id="81" depart="81.00" from="-754713797#2" to="53212283#1"/>
    <trip id="82" depart="82.00" from="448416000#2" to="-22727455#0"/>
    <trip id="83" depart="83.00" from="-931760904#0" to="286864434#0"/>
    <trip id="84" depart="84.00" from="-625285413" to="-29270657#2"/>
    <trip id="85" depart="85.00" from="643525737#0" to="22736560#1"/>
    <trip id="86" depart="86.00" from="187405596#0" to="327636497#1"/>
    <trip id="87" depart="87.00" from="361442307#2" to="-505064175#0"/>
    <trip id="88" depart="88.00" from="-27368942#1" to="16804338#1"/>
    <trip id="89" depart="89.00" from="16752099#1" to="187032331#0"/>
    <trip id="90" depart="90.00" from="31234888" to="291002268#0"/>
    <trip id="91" depart="91.00" from="889396113" to="-27369764#1"/>
    <trip id="92" depart="92.00" from="16314724#0" to="1351626608#1"/>
    <trip id="93" depart="93.00" from="467354581" to="1004379241"/>
    <trip id="94" depart="94.00" from="-504335876" to="172138458#4"/>
    <trip id="95" depart="95.00" from="16752096#0" to="114549376#1"/>
    <trip id="96" depart="96.00" from="1003993198" to="634946200#1"/>
    <trip id="97" depart="97.00" from="16804347#4" to="503888209#0"/>
    <trip id="98" depart="98.00" from="22728066#0" to="-172136126#0"/>
    <trip id="99" depart="99.00" from="996257047" to="402784540#1"/>
    <trip id="100" depart="100.00" from="781544205" to="642317653#3"/>
    <trip id="101" depart="101.00" from="43631336" to="-355463313#0"/>
    <trip id="102" depart="102.00" from="187980683" to="-634946200#0"/>
    <trip id="103" depart="103.00" from="16314715#1" to="-187980732#2"/>
    <trip id="104" depart="104.00" from="16313057#3" to="895843612"/>
    <trip id="105" depart="105.00" from="1056624430" to="327636497#0"/>
    <trip id="106" depart="106.00" from="173949340#0" to="16752117"/>
    <trip id="107" depart="107.00" from="694246614" to="956152209"/>
    <trip id="108" depart="108.00" from="22728084#1" to="310625247#3"/>
    <trip id="109" depart="109.00" from="-318885134#1" to="114815953#1"/>
    <trip id="110" depart="110.00" from="77694521" to="236813430#7"/>
    <trip id="111" depart="111.00" from="22727326#0" to="316464783#3"/>
    <trip id="112" depart="112.00" from="-173949340#1" to="24585805#0"/>
    <trip id="113" depart="113.00" from="188689783#2" to="44498473"/>
    <trip id="114" depart="114.00" from="-319453567#4" to="735197970"/>
    <trip id="115" depart="115.00" from="-22728492#3" to="-503888209#0"/>
    <trip id="116" depart="116.00" from="24645896#0" to="291002280#0"/>
    <trip id="117" depart="117.00" from="-931760903#2" to="-285385136#4"/>
    <trip id="118" depart="118.00" from="506686970#1" to="1003993198"/>
    <trip id="119" depart="119.00" from="24585819#1" to="27369757#2"/>
    <trip id="120" depart="120.00" from="16752083#1" to="24444654"/>
    <trip id="121" depart="121.00" from="21587257#0" to="643522075"/>
    <trip id="122" depart="122.00" from="-511282425" to="310543463#1"/>
    <trip id="123" depart="123.00" from="-931760904#2" to="16314714#7"/>
    <trip id="124" depart="124.00" from="285385136#7" to="114822555#2"/>
    <trip id="125" depart="125.00" from="116025989" to="319131468"/>
    <trip id="126" depart="126.00" from="-22728144#0" to="182832739#0"/>
    <trip id="127" depart="127.00" from="984924322" to="973067732"/>
    <trip id="128" depart="128.00" from="-22728144#10" to="-634946192"/>
    <trip id="129" depart="129.00" from="1056624430" to="642685406"/>
    <trip id="130" depart="130.00" from="505529289" to="505606198#1"/>
    <trip id="131" depart="131.00" from="16237812#2" to="-328041267#2"/>
    <trip id="132" depart="132.00" from="385486018#2" to="304190328#0"/>
    <trip id="133" depart="133.00" from="25014457" to="931759362#0"/>
    <trip id="134" depart="134.00" from="28187385#0" to="-1073865971"/>
    <trip id="135" depart="135.00" from="368606219#8" to="114822555#1"/>
    <trip id="136" depart="136.00" from="28458431" to="646872371"/>
    <trip id="137" depart="137.00" from="-29270668" to="-28458767#1"/>
    <trip id="138" depart="138.00" from="-274284265#1" to="22728085#2"/>
    <trip id="139" depart="139.00" from="114017939#1" to="25014455#2"/>
    <trip id="140" depart="140.00" from="30730332#0" to="-51943721#0"/>
    <trip id="141" depart="141.00" from="27369793#4" to="1073865971"/>
    <trip id="142" depart="142.00" from="187980702#0" to="53212283#1"/>
    <trip id="143" depart="143.00" from="434580879" to="-25014454"/>
    <trip id="144" depart="144.00" from="16752099#1" to="114549369"/>
    <trip id="145" depart="145.00" from="-102538346#3" to="321920982#1"/>
    <trip id="146" depart="146.00" from="27369800#1" to="1056624430"/>
    <trip id="147" depart="147.00" from="314239356" to="22728084#0"/>
    <trip id="148" depart="148.00" from="16752126#1" to="-114549368#0"/>
    <trip id="149" depart="149.00" from="-22728144#5" to="506116450#0"/>
    <trip id="150" depart="150.00" from="53183246#0" to="22727455#1"/>
    <trip id="151" depart="151.00" from="385555275" to="24444651#1"/>
    <trip id="152" depart="152.00" from="-313277571#2" to="-291120088#2"/>
    <trip id="153" depart="153.00" from="114959443" to="52313311#0"/>
    <trip id="154" depart="154.00" from="330378819#2" to="501244949#0"/>
    <trip id="155" depart="155.00" from="52313310#1" to="-595607354#2"/>
    <trip id="156" depart="156.00" from="1003957724#2" to="-27369798#0"/>
    <trip id="157" depart="157.00" from="325053376#2" to="506116451#1"/>
    <trip id="158" depart="158.00" from="164216261#1" to="27369762#2"/>
    <trip id="159" depart="159.00" from="-318885134#0" to="642317657#2"/>
    <trip id="160" depart="160.00" from="503888209#0" to="838810419#2"/>
    <trip id="161" depart="161.00" from="366640029#0" to="505606200"/>
    <trip id="162" depart="162.00" from="-1448574724" to="313501889#1"/>
    <trip id="163" depart="163.00" from="1300991794#0" to="642317661#0"/>
    <trip id="164" depart="164.00" from="355552851#2" to="504335874#0"/>
    <trip id="165" depart="165.00" from="366640029#0" to="112396697#0"/>
    <trip id="166" depart="166.00" from="327636497#1" to="-27584328#1"/>
    <trip id="167" depart="167.00" from="504338161" to="481680205"/>
    <trip id="168" depart="168.00" from="-672838074#0" to="371352966#2"/>
    <trip id="169" depart="169.00" from="17909472" to="114959444#0"/>
    <trip id="170" depart="170.00" from="330378819#1" to="-768728228#2"/>
    <trip id="171" depart="171.00" from="-1368103610#0" to="-505519311#1"/>
    <trip id="172" depart="172.00" from="1244125761" to="504335874#1"/>
    <trip id="173" depart="173.00" from="768728228#2" to="114549376#2"/>
    <trip id="174" depart="174.00" from="27582028#0" to="16314730#0"/>
    <trip id="175" depart="175.00" from="868279448" to="22727325#5"/>
    <trip id="176" depart="176.00" from="646872371" to="-28458767#1"/>
    <trip id="177" depart="177.00" from="800454330" to="-383486665#0"/>
    <trip id="178" depart="178.00" from="735197972#1" to="1113720064#0"/>
    <trip id="179" depart="179.00" from="-27584328#0" to="16804339#7"/>
    <trip id="180" depart="180.00" from="311886074#5" to="116025990#1"/>
    <trip id="181" depart="181.00" from="247597656#1" to="191640905"/>
    <trip id="182" depart="182.00" from="16313069#2" to="236813430#1"/>
    <trip id="183" depart="183.00" from="1018244909#1" to="305143019#1"/>
    <trip id="184" depart="184.00" from="-1018244909#3" to="642317653#2"/>
    <trip id="185" depart="185.00" from="22727325#10" to="311360773#0"/>
    <trip id="186" depart="186.00" from="314851453#0" to="286864436#0"/>
    <trip id="187" depart="187.00" from="16237799#0" to="-226915027#2"/>
    <trip id="188" depart="188.00" from="28458433" to="1300991795"/>
    <trip id="189" depart="189.00" from="114979745#0" to="43631339#3"/>
    <trip id="190" depart="190.00" from="30999211#1" to="114822555#3"/>
    <trip id="191" depart="191.00" from="114959444#1" to="16636236#0"/>
    <trip id="192" depart="192.00" from="16314722#2" to="114794171#2"/>
    <trip id="193" depart="193.00" from="-291120088#14" to="16752105"/>
    <trip id="194" depart="194.00" from="651690844#1" to="291120088#1"/>
    <trip id="195" depart="195.00" from="52327232#2" to="27369750#1"/>
    <trip id="196" depart="196.00" from="114815954#1" to="22728066#4"/>
    <trip id="197" depart="197.00" from="-1018244909#0" to="114553067#0"/>
    <trip id="198" depart="198.00" from="16752132#2" to="238560947"/>
    <trip id="199" depart="199.00" from="28187385#1" to="187024715"/>
    <trip id="200" depart="200.00" from="16804347#2" to="-634946200#0"/>
    <trip id="201" depart="201.00" from="187405596#1" to="52313313#1"/>
    <trip id="202" depart="202.00" from="330378819#2" to="-368361682#0"/>
    <trip id="203" depart="203.00" from="-24585808#5" to="21587253#2"/>
    <trip id="204" depart="204.00" from="27369793#1" to="131477037#0"/>
    <trip id="205" depart="205.00" from="36912780" to="318885135#1"/>
    <trip id="206" depart="206.00" from="285385136#9" to="-693493859#6"/>
    <trip id="207" depart="207.00" from="-506686969#0" to="-1448574724"/>
    <trip id="208" depart="208.00" from="1002026899" to="187980646#0"/>
    <trip id="209" depart="209.00" from="43631338" to="-22728144#1"/>
    <trip id="210" depart="210.00" from="16636241#2" to="27369793#3"/>
    <trip id="211" depart="211.00" from="-505519311#1" to="29593612"/>
    <trip id="212" depart="212.00" from="187980732#2" to="1003957723#0"/>
    <trip id="213" depart="213.00" from="28187385#4" to="-1047390883"/>
    <trip id="214" depart="214.00" from="316464783#2" to="321920981"/>
    <trip id="215" depart="215.00" from="-274284265#0" to="16752128#0"/>
    <trip id="216" depart="216.00" from="-383469671#0" to="712520771#1"/>
    <trip id="217" depart="217.00" from="213496841#0" to="-16804350#2"/>
    <trip id="218" depart="218.00" from="1003957724#1" to="43631339#3"/>
    <trip id="219" depart="219.00" from="17909448#1" to="360607389#3"/>
    <trip id="220" depart="220.00" from="28458768#2" to="931759362#1"/>
    <trip id="221" depart="221.00" from="24645896#1" to="676877112#1"/>
    <trip id="222" depart="222.00" from="506686972#1" to="27368942#1"/>
    <trip id="223" depart="223.00" from="30999211#0" to="190721404#0"/>
    <trip id="224" depart="224.00" from="383486665#1" to="22728066#4"/>
    <trip id="225" depart="225.00" from="520420545" to="31585998#2"/>
    <trip id="226" depart="226.00" from="187727333" to="1050524213#1"/>
    <trip id="227" depart="227.00" from="1002617679" to="27582028#1"/>
    <trip id="228" depart="228.00" from="319899457#0" to="21751090"/>
    <trip id="229" depart="229.00" from="27369764#1" to="114549365"/>
    <trip id="230" depart="230.00" from="-22728145" to="114549383#3"/>
    <trip id="231" depart="231.00" from="114017939#0" to="1180209719"/>
    <trip id="232" depart="232.00" from="22727325#5" to="-311420653"/>
    <trip id="233" depart="233.00" from="-812922175" to="294817999#4"/>
    <trip id="234" depart="234.00" from="303103884#2" to="-21587253#2"/>
    <trip id="235" depart="235.00" from="16584742#1" to="22727326#9"/>
    <trip id="236" depart="236.00" from="16636244#2" to="-553526427#1"/>
    <trip id="237" depart="237.00" from="16752083#3" to="53212283#0"/>
    <trip id="238" depart="238.00" from="236813430#6" to="295082892#1"/>
    <trip id="239" depart="239.00" from="447913425#1" to="319899460#4"/>
    <trip id="240" depart="240.00" from="16313057#6" to="-1050524213#0"/>
    <trip id="241" depart="241.00" from="1383744477#0" to="319415148#0"/>
    <trip id="242" depart="242.00" from="444175824#0" to="693493858"/>
    <trip id="243" depart="243.00" from="16752083#0" to="316464783#2"/>
    <trip id="244" depart="244.00" from="22727326#8" to="24983296#0"/>
    <trip id="245" depart="245.00" from="-651690844#8" to="-651690846"/>
    <trip id="246" depart="246.00" from="16804339#2" to="-16313066#0"/>
    <trip id="247" depart="247.00" from="131476908#2" to="291120088#13"/>
    <trip id="248" depart="248.00" from="16314730#2" to="-349642256"/>
    <trip id="249" depart="249.00" from="186595773" to="-291120088#2"/>
    <trip id="250" depart="250.00" from="27369755#3" to="-153855728#2"/>
    <trip id="251" depart="251.00" from="16313664#0" to="22728198#1"/>
    <trip id="252" depart="252.00" from="-153855728#1" to="27717895#0"/>
    <trip id="253" depart="253.00" from="-304412191#0" to="182832739#8"/>
    <trip id="254" depart="254.00" from="-16804350#2" to="16313066#1"/>
    <trip id="255" depart="255.00" from="-595607354#1" to="1276046979#0"/>
    <trip id="256" depart="256.00" from="319899453#2" to="16313066#1"/>
    <trip id="257" depart="257.00" from="316879301" to="385555276#0"/>
    <trip id="258" depart="258.00" from="1004379240#2" to="-24319948#1"/>
    <trip id="259" depart="259.00" from="-1201129750" to="22727326#10"/>
    <trip id="260" depart="260.00" from="999482317" to="1446347385#1"/>
    <trip id="261" depart="261.00" from="27717897" to="327512886"/>
    <trip id="262" depart="262.00" from="27717899#3" to="319415148#2"/>
    <trip id="263" depart="263.00" from="676877107#1" to="-506686970#2"/>
    <trip id="264" depart="264.00" from="-1300991794#0" to="-316464783#3"/>
    <trip id="265" depart="265.00" from="-291120088#11" to="286864435#0"/>
    <trip id="266" depart="266.00" from="22728146#0" to="-651690844#7"/>
    <trip id="267" depart="267.00" from="295082891" to="321718878"/>
    <trip id="268" depart="268.00" from="-355463313#0" to="255898440#0"/>
    <trip id="269" depart="269.00" from="31585998#3" to="-28354578"/>
    <trip id="270" depart="270.00" from="371352966#1" to="754713797#2"/>
    <trip id="271" depart="271.00" from="-27584323#1" to="-151701890"/>
    <trip id="272" depart="272.00" from="114959448#1" to="291120088#1"/>
    <trip id="273" depart="273.00" from="712520771#1" to="16314715#1"/>
    <trip id="274" depart="274.00" from="30730330#0" to="-22728144#7"/>
    <trip id="275" depart="275.00" from="29270653" to="27369785#0"/>
    <trip id="276" depart="276.00" from="-27369793#1" to="321920982#4"/>
    <trip id="277" depart="277.00" from="43631339#1" to="247597655"/>
    <trip id="278" depart="278.00" from="-285385136#4" to="884068438"/>
    <trip id="279" depart="279.00" from="325062543#0" to="1383744473#0"/>
    <trip id="280" depart="280.00" from="16752128#0" to="16237822"/>
    <trip id="281" depart="281.00" from="190721402#1" to="1360726820#1"/>
    <trip id="282" depart="282.00" from="43631338" to="378383994"/>
    <trip id="283" depart="283.00" from="-27369800#0" to="735197970"/>
    <trip id="284" depart="284.00" from="27369798#2" to="385477147#0"/>
    <trip id="285" depart="285.00" from="303846875#0" to="16804341#1"/>
    <trip id="286" depart="286.00" from="312558169#8" to="763481098"/>
    <trip id="287" depart="287.00" from="112396697#1" to="366640029#0"/>
    <trip id="288" depart="288.00" from="22727325#10" to="187980700#0"/>
    <trip id="289" depart="289.00" from="16804339#2" to="313165742#1"/>
    <trip id="290" depart="290.00" from="1101926673#1" to="444175824#3"/>
    <trip id="291" depart="291.00" from="383486665#1" to="-24729906#0"/>
    <trip id="292" depart="292.00" from="505606198#1" to="1003957723#0"/>
    <trip id="293" depart="293.00" from="182832739#8" to="26838814#3"/>
    <trip id="294" depart="294.00" from="16313057#3" to="-16313066#0"/>
    <trip id="295" depart="295.00" from="43631339#2" to="-421983573#0"/>
    <trip id="296" depart="296.00" from="-595607354#2" to="355463313#1"/>
    <trip id="297" depart="297.00" from="131477085" to="505606198#3"/>
    <trip id="298" depart="298.00" from="29593612" to="114549368#1"/>
    <trip id="299" depart="299.00" from="-114549371" to="672838076#2"/>
    <trip id="300" depart="300.00" from="-24645898#1" to="311360773#1"/>
    <trip id="301" depart="301.00" from="187980702#0" to="319899453#2"/>
    <trip id="302" depart="302.00" from="29270653" to="27717897"/>
    <trip id="303" depart="303.00" from="187980715#1" to="330378819#2"/>
    <trip id="304" depart="304.00" from="-25014455#1" to="-672838075"/>
    <trip id="305" depart="305.00" from="29270657#2" to="114959444#2"/>
    <trip id="306" depart="306.00" from="236813430#0" to="187980624"/>
    <trip id="307" depart="307.00" from="226914087#0" to="16752128#1"/>
    <trip id="308" depart="308.00" from="315769466#3" to="1305035002"/>
    <trip id="309" depart="309.00" from="300062517#1" to="114017941#1"/>
    <trip id="310" depart="310.00" from="1004379240#0" to="-285385136#5"/>
    <trip id="311" depart="311.00" from="-505067338#0" to="-285385136#3"/>
    <trip id="312" depart="312.00" from="22727324#1" to="319899455#4"/>
    <trip id="313" depart="313.00" from="-447913425#1" to="-651690844#3"/>
    <trip id="314" depart="314.00" from="187980674" to="31234888"/>
    <trip id="315" depart="315.00" from="838810419#2" to="222625433#2"/>
    <trip id="316" depart="316.00" from="114549377#0" to="-27369793#0"/>
    <trip id="317" depart="317.00" from="-505510063#1" to="-768728228#2"/>
    <trip id="318" depart="318.00" from="-383486664" to="-114721085#1"/>
    <trip id="319" depart="319.00" from="226915027#3" to="114549363"/>
    <trip id="320" depart="320.00" from="835434388#0" to="22728085#2"/>
    <trip id="321" depart="321.00" from="294817999#1" to="-291120088#13"/>
    <trip id="322" depart="322.00" from="504335877#1" to="187980732#2"/>
    <trip id="323" depart="323.00" from="504338162" to="22736561#2"/>
    <trip id="324" depart="324.00" from="187032329#1" to="16804348#0"/>
    <trip id="325" depart="325.00" from="-427901089" to="-172136126#2"/>
    <trip id="326" depart="326.00" from="651690844#3" to="187980659#0"/>
    <trip id="327" depart="327.00" from="37697530" to="16314730#3"/>
    <trip id="328" depart="328.00" from="-22728144#3" to="27369793#3"/>
    <trip id="329" depart="329.00" from="-172138458#1" to="-315769466#2"/>
    <trip id="330" depart="330.00" from="22728144#9" to="114959440#0"/>
    <trip id="331" depart="331.00" from="941976233#0" to="-285385136#1"/>
    <trip id="332" depart="332.00" from="319899455#3" to="25014455#5"/>
    <trip id="333" depart="333.00" from="328041267#4" to="-754713797#0"/>
    <trip id="334" depart="334.00" from="21587255#1" to="173499642#1"/>
    <trip id="335" depart="335.00" from="16804347#3" to="490980062"/>
    <trip id="336" depart="336.00" from="931760903#5" to="114959444#0"/>
    <trip id="337" depart="337.00" from="27369755#0" to="26838814#2"/>
    <trip id="338" depart="338.00" from="313501888" to="672838076#1"/>
    <trip id="339" depart="339.00" from="-52327232#1" to="-595607354#4"/>
    <trip id="340" depart="340.00" from="28458116#0" to="-328041267#1"/>
    <trip id="341" depart="341.00" from="-37698287#0" to="-22728144#5"/>
    <trip id="342" depart="342.00" from="-102538346#1" to="173499642#1"/>
    <trip id="343" depart="343.00" from="24585808#5" to="114721085#1"/>
    <trip id="344" depart="344.00" from="-812922175" to="304411854"/>
    <trip id="345" depart="345.00" from="300062517#1" to="17909452#1"/>
    <trip id="346" depart="346.00" from="291120088#8" to="634946213"/>
    <trip id="347" depart="347.00" from="328041266#0" to="27369775#1"/>
    <trip id="348" depart="348.00" from="28458116#2" to="643516658"/>
    <trip id="349" depart="349.00" from="16752111#1" to="22727452#2"/>
    <trip id="350" depart="350.00" from="27717895#1" to="53212286#2"/>
    <trip id="351" depart="351.00" from="383469671#1" to="-22727455#2"/>
    <trip id="352" depart="352.00" from="-330378819#3" to="114959446#1"/>
    <trip id="353" depart="353.00" from="31585998#5" to="22728493#1"/>
    <trip id="354" depart="354.00" from="114549383#3" to="-291120088#1"/>
    <trip id="355" depart="355.00" from="291132512#0" to="302095144"/>
    <trip id="356" depart="356.00" from="651690844#6" to="189500474#3"/>
    <trip id="357" depart="357.00" from="187980732#1" to="-22728492#4"/>
    <trip id="358" depart="358.00" from="-16765433#2" to="16804339#1"/>
    <trip id="359" depart="359.00" from="116025991#7" to="1018244909#1"/>
    <trip id="360" depart="360.00" from="-24983296#0" to="735197972#1"/>
    <trip id="361" depart="361.00" from="386389967" to="229650097#1"/>
    <trip id="362" depart="362.00" from="676877112#2" to="999482317"/>
    <trip id="363" depart="363.00" from="285385136#8" to="114017939#1"/>
    <trip id="364" depart="364.00" from="-16804335#0" to="319453567#2"/>
    <trip id="365" depart="365.00" from="187032331#1" to="28187385#4"/>
    <trip id="366" depart="366.00" from="581616145" to="-387896057#2"/>
    <trip id="367" depart="367.00" from="24319947" to="27582025#0"/>
    <trip id="368" depart="368.00" from="187980719#1" to="-24983296#0"/>
    <trip id="369" depart="369.00" from="1381883229#0" to="131476956#0"/>
    <trip id="370" depart="370.00" from="285385136#3" to="465428632#1"/>
    <trip id="371" depart="371.00" from="127546090#1" to="294817999#3"/>
    <trip id="372" depart="372.00" from="114549383#2" to="672838072"/>
    <trip id="373" depart="373.00" from="368606219#0" to="22728067#2"/>
    <trip id="374" depart="374.00" from="173499642#3" to="116025990#3"/>
    <trip id="375" depart="375.00" from="1180209719" to="800454330"/>
    <trip id="376" depart="376.00" from="16314730#1" to="213496841#1"/>
    <trip id="377" depart="377.00" from="931760903#1" to="28458117#1"/>
    <trip id="378" depart="378.00" from="22727326#1" to="16636244#4"/>
    <trip id="379" depart="379.00" from="-503888209#1" to="16237800#0"/>
    <trip id="380" depart="380.00" from="319415148#0" to="27369775#2"/>
    <trip id="381" depart="381.00" from="319453567#4" to="-51943721#0"/>
    <trip id="382" depart="382.00" from="22727455#1" to="642317654"/>
    <trip id="383" depart="383.00" from="16804339#7" to="300062517#1"/>
    <trip id="384" depart="384.00" from="-285385136#5" to="812952366#5"/>
    <trip id="385" depart="385.00" from="25014454" to="-996257044"/>
    <trip id="386" depart="386.00" from="-321722463#1" to="22728067#3"/>
    <trip id="387" depart="387.00" from="22728066#5" to="-25014455#1"/>
    <trip id="388" depart="388.00" from="931760904#2" to="553864224#0"/>
    <trip id="389" depart="389.00" from="182832739#0" to="-28458768#2"/>
    <trip id="390" depart="390.00" from="385477147#0" to="188689783#1"/>
    <trip id="391" depart="391.00" from="30730330#4" to="191640877#1"/>
    <trip id="392" depart="392.00" from="114017941#0" to="387896057#1"/>
    <trip id="393" depart="393.00" from="858291155#1" to="1003957723#0"/>
    <trip id="394" depart="394.00" from="22728066#2" to="16313073"/>
    <trip id="395" depart="395.00" from="625285413" to="191640877#0"/>
    <trip id="396" depart="396.00" from="505519311#0" to="504335874#0"/>
    <trip id="397" depart="397.00" from="114549358" to="329316575#3"/>
    <trip id="398" depart="398.00" from="16636244#0" to="643522073"/>
    <trip id="399" depart="399.00" from="190721403#1" to="37698287#1"/>
    <trip id="400" depart="400.00" from="114549377#0" to="114815955"/>
    <trip id="401" depart="401.00" from="24444650" to="996257044"/>
    <trip id="402" depart="402.00" from="187980708#0" to="-315769466#1"/>
    <trip id="403" depart="403.00" from="22727325#2" to="1383727910"/>
    <trip id="404" depart="404.00" from="22728066#4" to="22727452#0"/>
    <trip id="405" depart="405.00" from="173949340#1" to="1185249061"/>
    <trip id="406" depart="406.00" from="-504090041" to="300062515#1"/>
    <trip id="407" depart="407.00" from="22728492#3" to="-931760903#4"/>
    <trip id="408" depart="408.00" from="321920982#5" to="-16804339#5"/>
    <trip id="409" depart="409.00" from="315769466#0" to="304406327"/>
    <trip id="410" depart="410.00" from="366640029#1" to="16313659#1"/>
    <trip id="411" depart="411.00" from="28458432" to="37698287#2"/>
    <trip id="412" depart="412.00" from="858291157" to="188337231#1"/>